data_grapheneOpt+benzene
_audit_creation_date              2018-12-21
_audit_creation_method            'Materials Studio'
_symmetry_space_group_name_H-M    'P1'
_symmetry_Int_Tables_number       1
_symmetry_cell_setting            triclinic
loop_
_symmetry_equiv_pos_as_xyz
  x,y,z
_cell_length_a                    4.9261
_cell_length_b                    4.9261
_cell_length_c                    5.0000
_cell_angle_alpha                 90.0000
_cell_angle_beta                  90.0000
_cell_angle_gamma                 120.0001
loop_
_atom_site_label
_atom_site_type_symbol
_atom_site_fract_x
_atom_site_fract_y
_atom_site_fract_z
_atom_site_U_iso_or_equiv
_atom_site_adp_type
_atom_site_occupancy
C1     C    -0.00000   0.00000   0.04680   0.01267  Uiso   1.00
C2     C     0.33333   0.16667   0.04680   0.01267  Uiso   1.00
C3     C     0.50000   0.00000   0.04680   0.01267  Uiso   1.00
C4     C     0.83333   0.16667   0.04680   0.01267  Uiso   1.00
C5     C    -0.00000   0.50000   0.04680   0.01267  Uiso   1.00
C6     C     0.33333   0.66667   0.04680   0.01267  Uiso   1.00
C7     C     0.50000   0.50000   0.04680   0.01267  Uiso   1.00
C8     C     0.83333   0.66667   0.04680   0.01267  Uiso   1.00
C9     C     0.14836   0.25128   0.31335   0.00000  Uiso   1.00
C10    C     0.45441   0.23863   0.30773   0.00000  Uiso   1.00
C11    C     0.77318   0.54472   0.30783   0.00000  Uiso   1.00
C12    C     0.78590   0.86345   0.31355   0.00000  Uiso   1.00
C13    C     0.47985   0.87610   0.31916   0.00000  Uiso   1.00
C14    C     0.16107   0.57001   0.31906   0.00000  Uiso   1.00
loop_
_geom_bond_atom_site_label_1
_geom_bond_atom_site_label_2
_geom_bond_distance
_geom_bond_site_symmetry_2
_ccdc_geom_bond_type
C1     C2      1.422   .     S
C1     C4      1.422   1_455 S
C1     C8      1.422   1_445 S
C2     C3      1.422   .     S
C2     C7      1.422   .     D
C3     C4      1.422   .     S
C3     C6      1.422   1_545 S
C4     C1      1.422   1_655 S
C4     C5      1.422   1_655 S
C5     C6      1.422   .     S
C5     C4      1.422   1_455 S
C5     C8      1.422   1_455 S
C6     C7      1.422   .     S
C6     C3      1.422   1_565 S
C7     C8      1.422   .     S
C8     C5      1.422   1_655 S
C8     C1      1.422   1_665 S
C9     C10     1.540   .     S
C9     C14     1.540   .     S
C10    C11     1.540   .     S
C11    C12     1.540   .     S
C12    C13     1.540   .     S
C13    C14     1.540   .     S
