data_graphene33Opt+benzene
_audit_creation_date              2018-12-21
_audit_creation_method            'Materials Studio'
_symmetry_space_group_name_H-M    'P1'
_symmetry_Int_Tables_number       1
_symmetry_cell_setting            triclinic
loop_
_symmetry_equiv_pos_as_xyz
  x,y,z
_cell_length_a                    7.4049
_cell_length_b                    7.4049
_cell_length_c                    7.9982
_cell_angle_alpha                 90.0000
_cell_angle_beta                  90.0000
_cell_angle_gamma                 120.0000
loop_
_atom_site_label
_atom_site_type_symbol
_atom_site_fract_x
_atom_site_fract_y
_atom_site_fract_z
_atom_site_U_iso_or_equiv
_atom_site_adp_type
_atom_site_occupancy
C1     C     0.00000   0.00000   0.02250   0.01267  Uiso   1.00
C2     C     0.22222   0.11111   0.02250   0.01267  Uiso   1.00
C3     C     0.33333  -0.00000   0.02250   0.01267  Uiso   1.00
C4     C     0.55556   0.11111   0.02250   0.01267  Uiso   1.00
C5     C     0.66667  -0.00000   0.02250   0.01267  Uiso   1.00
C6     C     0.88889   0.11111   0.02250   0.01267  Uiso   1.00
C7     C     0.00000   0.33333   0.02250   0.01267  Uiso   1.00
C8     C     0.22222   0.44444   0.02250   0.01267  Uiso   1.00
C9     C     0.33333   0.33333   0.02250   0.01267  Uiso   1.00
C10    C     0.55556   0.44444   0.02250   0.01267  Uiso   1.00
C11    C     0.66667   0.33333   0.02250   0.01267  Uiso   1.00
C12    C     0.88889   0.44444   0.02250   0.01267  Uiso   1.00
C13    C     0.00000   0.66667   0.02250   0.01267  Uiso   1.00
C14    C     0.22222   0.77778   0.02250   0.01267  Uiso   1.00
C15    C     0.33333   0.66667   0.02250   0.01267  Uiso   1.00
C16    C     0.55556   0.77778   0.02250   0.01267  Uiso   1.00
C17    C     0.66667   0.66667   0.02250   0.01267  Uiso   1.00
C18    C     0.88889   0.77778   0.02250   0.01267  Uiso   1.00
C19    C     0.60266   0.73725   0.12227   0.00000  Uiso   1.00
C20    C     0.36386   0.60005   0.13423   0.00000  Uiso   1.00
C21    C     0.26274   0.36129   0.14601   0.00000  Uiso   1.00
C22    C     0.40041   0.25972   0.14583   0.00000  Uiso   1.00
C23    C     0.63921   0.39692   0.13387   0.00000  Uiso   1.00
C24    C     0.74033   0.63569   0.12209   0.00000  Uiso   1.00
H25    H     0.67752   0.91400   0.11356   0.00000  Uiso   1.00
H26    H     0.26195   0.67524   0.13437   0.00000  Uiso   1.00
H27    H     0.08597   0.25973   0.15486   0.00000  Uiso   1.00
H28    H     0.32555   0.08297   0.15455   0.00000  Uiso   1.00
H29    H     0.74112   0.32174   0.13374   0.00000  Uiso   1.00
H30    H     0.91710   0.73725   0.11324   0.00000  Uiso   1.00
loop_
_geom_bond_atom_site_label_1
_geom_bond_atom_site_label_2
_geom_bond_distance
_geom_bond_site_symmetry_2
_ccdc_geom_bond_type
C1     C2      1.425   .     D
C1     C6      1.425   1_455 S
C1     C18     1.425   1_445 S
C2     C3      1.425   .     S
C2     C9      1.425   .     S
C3     C4      1.425   .     S
C3     C14     1.425   1_545 D
C4     C5      1.425   .     S
C4     C11     1.425   .     D
C5     C6      1.425   .     S
C5     C16     1.425   1_545 D
C6     C1      1.425   1_655 S
C6     C7      1.425   1_655 D
C7     C6      1.425   1_455 D
C7     C8      1.425   .     S
C7     C12     1.425   1_455 S
C8     C9      1.425   .     S
C8     C15     1.425   .     D
C9     C10     1.425   .     D
C10    C11     1.425   .     S
C10    C17     1.425   .     S
C11    C12     1.425   .     S
C12    C7      1.425   1_655 S
C12    C13     1.425   1_655 D
C13    C12     1.425   1_455 D
C13    C14     1.425   .     S
C13    C18     1.425   1_455 S
C14    C3      1.425   1_565 D
C14    C15     1.425   .     S
C15    C16     1.425   .     S
C16    C5      1.425   1_565 D
C16    C17     1.425   .     S
C17    C18     1.425   .     D
C18    C1      1.425   1_665 S
C18    C13     1.425   1_655 S
C19    C20     1.540   .     A
C19    C24     1.540   .     A
C19    H25     1.140   .     S
C20    C21     1.540   .     A
C20    H26     1.140   .     S
C21    C22     1.540   .     A
C21    H27     1.140   .     S
C22    C23     1.540   .     A
C22    H28     1.140   .     S
C23    C24     1.540   .     A
C23    H29     1.140   .     S
C24    H30     1.140   .     S
