data_benzene
_audit_creation_date              2018-12-21
_audit_creation_method            'Materials Studio'
_symmetry_space_group_name_H-M    'P1'
_symmetry_Int_Tables_number       1
_symmetry_cell_setting            triclinic
loop_
_symmetry_equiv_pos_as_xyz
  x,y,z
_cell_length_a                    10.0000
_cell_length_b                    10.0000
_cell_length_c                    10.0000
_cell_angle_alpha                 90.0000
_cell_angle_beta                  90.0000
_cell_angle_gamma                 90.0000
loop_
_atom_site_label
_atom_site_type_symbol
_atom_site_fract_x
_atom_site_fract_y
_atom_site_fract_z
_atom_site_U_iso_or_equiv
_atom_site_adp_type
_atom_site_occupancy
C1     C     0.39945   0.32981   0.51136   0.00000  Uiso   1.00
C2     C     0.47774   0.33719   0.37895   0.00000  Uiso   1.00
C3     C     0.62879   0.36715   0.38038   0.00000  Uiso   1.00
C4     C     0.70155   0.38974   0.51422   0.00000  Uiso   1.00
C5     C     0.62325   0.38236   0.64663   0.00000  Uiso   1.00
C6     C     0.47220   0.35240   0.64520   0.00000  Uiso   1.00
H7     H     0.28763   0.30763   0.51030   0.00000  Uiso   1.00
H8     H     0.42389   0.32047   0.27988   0.00000  Uiso   1.00
H9     H     0.68675   0.37261   0.28237   0.00000  Uiso   1.00
H10    H     0.81337   0.41192   0.51528   0.00000  Uiso   1.00
H11    H     0.67711   0.39908   0.74570   0.00000  Uiso   1.00
H12    H     0.41424   0.34694   0.74321   0.00000  Uiso   1.00
loop_
_geom_bond_atom_site_label_1
_geom_bond_atom_site_label_2
_geom_bond_distance
_geom_bond_site_symmetry_2
_ccdc_geom_bond_type
C1     C2      1.540   .     A
C1     C6      1.540   .     A
C1     H7      1.140   .     S
C2     C3      1.540   .     A
C2     H8      1.140   .     S
C3     C4      1.540   .     A
C3     H9      1.140   .     S
C4     C5      1.540   .     A
C4     H10     1.140   .     S
C5     C6      1.540   .     A
C5     H11     1.140   .     S
C6     H12     1.140   .     S
