data_grapheneOpt+h2OC
_audit_creation_date              2018-12-23
_audit_creation_method            'Materials Studio'
_symmetry_space_group_name_H-M    'P1'
_symmetry_Int_Tables_number       1
_symmetry_cell_setting            triclinic
loop_
_symmetry_equiv_pos_as_xyz
  x,y,z
_cell_length_a                    4.9046
_cell_length_b                    4.9046
_cell_length_c                    10.0000
_cell_angle_alpha                 90.0000
_cell_angle_beta                  90.0000
_cell_angle_gamma                 120.0005
loop_
_atom_site_label
_atom_site_type_symbol
_atom_site_fract_x
_atom_site_fract_y
_atom_site_fract_z
_atom_site_U_iso_or_equiv
_atom_site_adp_type
_atom_site_occupancy
C1     C    -0.00000  -0.00000   0.02813   0.01267  Uiso   1.00
C2     C     0.33333   0.16667   0.02813   0.01267  Uiso   1.00
C3     C     0.50000   0.00000   0.02813   0.01267  Uiso   1.00
C4     C     0.83333   0.16667   0.02813   0.01267  Uiso   1.00
C5     C    -0.00000   0.50000   0.02813   0.01267  Uiso   1.00
C6     C     0.33333   0.66667   0.02813   0.01267  Uiso   1.00
C7     C     0.50000   0.50000   0.02813   0.01267  Uiso   1.00
C8     C     0.83333   0.66667   0.02813   0.01267  Uiso   1.00
H9     H     0.88385   0.56214   0.24544   0.00000  Uiso   1.00
O10    O     0.69513   0.40830   0.31646   0.00000  Uiso   1.00
H11    H     0.48792   0.22940   0.25979   0.00000  Uiso   1.00
loop_
_geom_bond_atom_site_label_1
_geom_bond_atom_site_label_2
_geom_bond_distance
_geom_bond_site_symmetry_2
_ccdc_geom_bond_type
C1     C2      1.416   .     D
C1     C4      1.416   1_455 S
C1     C8      1.416   1_445 S
C2     C3      1.416   .     S
C2     C7      1.416   .     S
C3     C4      1.416   .     S
C3     C6      1.416   1_545 S
C4     C1      1.416   1_655 S
C4     C5      1.416   1_655 S
C5     C6      1.416   .     S
C5     C4      1.416   1_455 S
C5     C8      1.416   1_455 S
C6     C7      1.416   .     S
C6     C3      1.416   1_565 S
C7     C8      1.416   .     D
C8     C1      1.416   1_665 S
C8     C5      1.416   1_655 S
H9     O10     1.110   .     S
O10    H11     1.110   .     S
