data_grapheneV22opt\(2)
_audit_creation_date              2018-12-23
_audit_creation_method            'Materials Studio'
_symmetry_space_group_name_H-M    'P1'
_symmetry_Int_Tables_number       1
_symmetry_cell_setting            triclinic
loop_
_symmetry_equiv_pos_as_xyz
  x,y,z
_cell_length_a                    4.9372
_cell_length_b                    4.9372
_cell_length_c                    9.9993
_cell_angle_alpha                 90.0000
_cell_angle_beta                  90.0000
_cell_angle_gamma                 120.0002
loop_
_atom_site_label
_atom_site_type_symbol
_atom_site_fract_x
_atom_site_fract_y
_atom_site_fract_z
_atom_site_U_iso_or_equiv
_atom_site_adp_type
_atom_site_occupancy
C1     C     0.00000  -0.00000   0.00000   0.01267  Uiso   1.00
C2     C     0.16667   0.33333   0.00000   0.01267  Uiso   1.00
C3     C     0.00000   0.50000   0.00000   0.01267  Uiso   1.00
C4     C     0.16667   0.83333   0.00000   0.01267  Uiso   1.00
C5     C     0.50000  -0.00000   0.00000   0.01267  Uiso   1.00
C6     C     0.66667   0.33333   0.00000   0.01267  Uiso   1.00
C7     C     0.50000   0.50000   0.00000   0.01267  Uiso   1.00
C8     C     0.66667   0.83333   0.00000   0.01267  Uiso   1.00
O9     O     0.51182   0.51697   0.13098   0.00000  Uiso   1.00
H10    H     0.31688   0.49454   0.19424   0.00000  Uiso   1.00
H11    H     0.71229   0.55987   0.19558   0.00000  Uiso   1.00
loop_
_geom_bond_atom_site_label_1
_geom_bond_atom_site_label_2
_geom_bond_distance
_geom_bond_site_symmetry_2
_ccdc_geom_bond_type
C1     C2      1.425   .     S
C1     C4      1.425   1_545 S
C1     C8      1.425   1_445 D
C2     C3      1.425   .     S
C2     C7      1.425   .     D
C3     C4      1.425   .     S
C3     C6      1.425   1_455 D
C4     C1      1.425   1_565 S
C4     C5      1.425   1_565 D
C5     C4      1.425   1_545 D
C5     C6      1.425   .     S
C5     C8      1.425   1_545 S
C6     C3      1.425   1_655 D
C6     C7      1.425   .     S
C7     C8      1.425   .     S
C8     C1      1.425   1_665 D
C8     C5      1.425   1_565 S
O9     H10     1.110   .     S
O9     H11     1.110   .     S
