data_graphene33
_audit_creation_date              2018-12-21
_audit_creation_method            'Materials Studio'
_symmetry_space_group_name_H-M    'P1'
_symmetry_Int_Tables_number       1
_symmetry_cell_setting            triclinic
loop_
_symmetry_equiv_pos_as_xyz
  x,y,z
_cell_length_a                    7.3800
_cell_length_b                    7.3800
_cell_length_c                    8.0000
_cell_angle_alpha                 90.0000
_cell_angle_beta                  90.0000
_cell_angle_gamma                 120.0000
loop_
_atom_site_label
_atom_site_type_symbol
_atom_site_fract_x
_atom_site_fract_y
_atom_site_fract_z
_atom_site_U_iso_or_equiv
_atom_site_adp_type
_atom_site_occupancy
C1     C     0.00000   0.00000   0.02250   0.00000  Uiso   1.00
C2     C     0.22222   0.11111   0.02250   0.00000  Uiso   1.00
C3     C     0.33333   0.00000   0.02250   0.00000  Uiso   1.00
C4     C     0.55556   0.11111   0.02250   0.00000  Uiso   1.00
C5     C     0.66667   0.00000   0.02250   0.00000  Uiso   1.00
C6     C     0.88889   0.11111   0.02250   0.00000  Uiso   1.00
C7     C     0.00000   0.33333   0.02250   0.00000  Uiso   1.00
C8     C     0.22222   0.44444   0.02250   0.00000  Uiso   1.00
C9     C     0.33333   0.33333   0.02250   0.00000  Uiso   1.00
C10    C     0.55556   0.44444   0.02250   0.00000  Uiso   1.00
C11    C     0.66667   0.33333   0.02250   0.00000  Uiso   1.00
C12    C     0.88889   0.44444   0.02250   0.00000  Uiso   1.00
C13    C     0.00000   0.66667   0.02250   0.00000  Uiso   1.00
C14    C     0.22222   0.77778   0.02250   0.00000  Uiso   1.00
C15    C     0.33333   0.66667   0.02250   0.00000  Uiso   1.00
C16    C     0.55556   0.77778   0.02250   0.00000  Uiso   1.00
C17    C     0.66667   0.66667   0.02250   0.00000  Uiso   1.00
C18    C     0.88889   0.77778   0.02250   0.00000  Uiso   1.00
loop_
_geom_bond_atom_site_label_1
_geom_bond_atom_site_label_2
_geom_bond_distance
_geom_bond_site_symmetry_2
_ccdc_geom_bond_type
C1     C2      1.420   .     A
C1     C6      1.420   1_455 S
C1     C18     1.420   1_445 S
C2     C9      1.420   .     S
C2     C3      1.420   .     S
C3     C4      1.420   .     A
C3     C14     1.420   1_545 S
C4     C11     1.420   .     S
C4     C5      1.420   .     S
C5     C6      1.420   .     A
C5     C16     1.420   1_545 S
C6     C1      1.420   1_655 S
C6     C7      1.420   1_655 S
C7     C8      1.420   .     A
C7     C6      1.420   1_455 S
C7     C12     1.420   1_455 S
C8     C15     1.420   .     S
C8     C9      1.420   .     S
C9     C10     1.420   .     A
C10    C17     1.420   .     S
C10    C11     1.420   .     S
C11    C12     1.420   .     A
C12    C7      1.420   1_655 S
C12    C13     1.420   1_655 S
C13    C14     1.420   .     A
C13    C12     1.420   1_455 S
C13    C18     1.420   1_455 S
C14    C15     1.420   .     S
C14    C3      1.420   1_565 S
C15    C16     1.420   .     A
C16    C17     1.420   .     S
C16    C5      1.420   1_565 S
C17    C18     1.420   .     A
C18    C1      1.420   1_665 S
C18    C13     1.420   1_655 S
