data_grapheneVopt\(2)
_audit_creation_date              2018-12-24
_audit_creation_method            'Materials Studio'
_symmetry_space_group_name_H-M    'P1'
_symmetry_Int_Tables_number       1
_symmetry_cell_setting            triclinic
loop_
_symmetry_equiv_pos_as_xyz
  x,y,z
_cell_length_a                    7.3800
_cell_length_b                    7.3800
_cell_length_c                    10.0000
_cell_angle_alpha                 90.0000
_cell_angle_beta                  90.0000
_cell_angle_gamma                 60.0000
loop_
_atom_site_label
_atom_site_type_symbol
_atom_site_fract_x
_atom_site_fract_y
_atom_site_fract_z
_atom_site_U_iso_or_equiv
_atom_site_adp_type
_atom_site_occupancy
C1     C     0.00006   0.00006   0.00000   0.01267  Uiso   1.00
C2     C     0.11105   0.11106   0.00000   0.01267  Uiso   1.00
C3     C     0.00006   0.33323   0.00000   0.01267  Uiso   1.00
C4     C     0.11114   0.44444   0.00000   0.01267  Uiso   1.00
C5     C    -0.00003   0.66667   0.00000   0.01267  Uiso   1.00
C6     C     0.11105   0.77788   0.00000   0.01267  Uiso   1.00
C7     C     0.33338   0.66656   0.00000   0.01267  Uiso   1.00
C8     C     0.44455   0.77773   0.00000   0.01267  Uiso   1.00
C9     C     0.33323   0.00006   0.00000   0.01267  Uiso   1.00
C10    C     0.44444   0.11114   0.00000   0.01267  Uiso   1.00
C11    C     0.33337   0.33338   0.00000   0.01267  Uiso   1.00
C12    C     0.44443   0.44443   0.00000   0.01267  Uiso   1.00
C13    C     0.66656   0.33338   0.00000   0.01267  Uiso   1.00
C14    C     0.77773   0.44455   0.00000   0.01267  Uiso   1.00
C15    C     0.66668   0.66668   0.00000   0.01267  Uiso   1.00
C16    C     0.77773   0.77774   0.00000   0.01267  Uiso   1.00
C17    C     0.66667  -0.00003   0.00000   0.01267  Uiso   1.00
C18    C     0.77788   0.11105   0.00000   0.01267  Uiso   1.00
C19    C     0.44345   0.25053   0.29624   0.00000  Uiso   1.00
C20    C     0.24012   0.46390   0.30195   0.00000  Uiso   1.00
C21    C     0.25020   0.66732   0.30414   0.00000  Uiso   1.00
C22    C     0.46361   0.65738   0.30063   0.00000  Uiso   1.00
C23    C     0.66694   0.44401   0.29492   0.00000  Uiso   1.00
C24    C     0.65686   0.24059   0.29273   0.00000  Uiso   1.00
H25    H     0.43598   0.09994   0.29462   0.00000  Uiso   1.00
H26    H     0.08214   0.47125   0.30454   0.00000  Uiso   1.00
H27    H     0.09969   0.82527   0.30836   0.00000  Uiso   1.00
H28    H     0.47108   0.80797   0.30225   0.00000  Uiso   1.00
H29    H     0.82492   0.43665   0.29232   0.00000  Uiso   1.00
H30    H     0.80737   0.08264   0.28851   0.00000  Uiso   1.00
loop_
_geom_bond_atom_site_label_1
_geom_bond_atom_site_label_2
_geom_bond_distance
_geom_bond_site_symmetry_2
_ccdc_geom_bond_type
C1     C2      1.419   .     S
C1     C6      1.420   1_545 S
C1     C18     1.420   1_455 D
C2     C3      1.420   .     D
C2     C9      1.420   .     S
C3     C4      1.421   .     S
C3     C14     1.421   1_455 S
C4     C5      1.420   .     D
C4     C11     1.420   .     S
C5     C6      1.421   .     S
C5     C16     1.420   1_455 S
C6     C1      1.420   1_565 S
C6     C7      1.421   .     D
C7     C8      1.421   .     S
C7     C12     1.420   .     S
C8     C9      1.421   1_565 D
C8     C15     1.420   .     S
C9     C8      1.421   1_545 D
C9     C10     1.421   .     S
C10    C11     1.420   .     D
C10    C17     1.420   .     S
C11    C12     1.420   .     S
C12    C13     1.420   .     D
C13    C14     1.421   .     S
C13    C18     1.421   .     S
C14    C3      1.421   1_655 S
C14    C15     1.420   .     D
C15    C16     1.420   .     S
C16    C5      1.420   1_655 S
C16    C17     1.420   1_565 D
C17    C16     1.420   1_545 D
C17    C18     1.421   .     S
C18    C1      1.420   1_655 D
C19    C20     1.540   .     A
C19    C24     1.540   .     A
C19    H25     1.140   .     S
C20    C21     1.540   .     A
C20    H26     1.140   .     S
C21    C22     1.540   .     A
C21    H27     1.140   .     S
C22    C23     1.540   .     A
C22    H28     1.140   .     S
C23    C24     1.540   .     A
C23    H29     1.140   .     S
C24    H30     1.140   .     S
